Version 4
SHEET 1 880 680
WIRE 176 64 16 64
WIRE 416 64 240 64
WIRE 16 144 16 64
WIRE 416 144 416 64
WIRE 16 288 16 224
WIRE 416 288 416 224
WIRE 416 288 16 288
FLAG 16 288 0
SYMBOL voltage 16 128 R0
WINDOW 123 0 0 Left 0
WINDOW 39 0 0 Left 0
SYMATTR InstName V1
SYMATTR Value SINE(0 1 100)
SYMBOL diode 176 80 R270
WINDOW 0 32 32 VTop 2
WINDOW 3 0 32 VBottom 2
SYMATTR InstName D1
SYMBOL res 400 128 R0
SYMATTR InstName R1
SYMATTR Value 10k
TEXT -16 312 Left 2 !.tran 0.05
